Version 4
SHEET 1 880 680
WIRE 128 -32 -256 -32
WIRE 192 -32 128 -32
WIRE 592 -32 192 -32
WIRE 128 16 128 -32
WIRE 192 16 192 -32
WIRE 416 48 320 48
WIRE 416 96 416 48
WIRE -256 128 -256 -32
WIRE 416 192 416 176
WIRE 416 192 320 192
WIRE 416 224 416 192
WIRE 96 240 -48 240
WIRE -48 256 -48 240
WIRE -256 384 -256 208
WIRE -48 384 -48 336
WIRE -48 384 -256 384
WIRE 176 384 176 336
WIRE 176 384 -48 384
WIRE 416 384 416 304
WIRE 416 384 176 384
WIRE 736 384 416 384
WIRE 176 400 176 384
FLAG 176 400 0
FLAG 416 192 V_inv
FLAG 416 48 V_out
SYMBOL LM723 176 80 R0
SYMATTR InstName U1
SYMBOL voltage -256 112 R0
WINDOW 123 0 0 Left 0
WINDOW 39 0 0 Left 0
SYMATTR InstName V1
SYMATTR Value 30
SYMBOL res 400 80 R0
SYMATTR InstName R3
SYMATTR Value 10k
SYMBOL res 400 208 R0
SYMATTR InstName R4
SYMATTR Value 3k
SYMBOL voltage -48 240 R0
WINDOW 123 0 0 Left 0
WINDOW 39 0 0 Left 0
SYMATTR InstName V2
SYMATTR Value 5
TEXT -248 -144 Left 2 ;;tran 1m
TEXT -248 -104 Left 2 !.inc potentiometer.sub
TEXT -248 -184 Left 2 !.dc V2 0 7 1
